
     RDKit          3D

 38 39  0  0  0  0  0  0  0  0999 V2000
    6.0560    1.6938    0.1987 C   0  0  0  0  0  0  0  0  0  0  0  0
    4.8392    2.1688    0.7363 O   0  0  0  0  0  0  0  0  0  0  0  0
    3.7422    1.3460    0.7860 C   0  0  0  0  0  0  0  0  0  0  0  0
    3.8245    0.0590    0.3133 C   0  0  0  0  0  0  0  0  0  0  0  0
    2.7221   -0.7871    0.3566 C   0  0  0  0  0  0  0  0  0  0  0  0
    1.5259   -0.3338    0.8805 C   0  0  0  0  0  0  0  0  0  0  0  0
    0.1219   -1.4003    0.9395 S   0  0  0  0  0  6  0  0  0  0  0  0
   -0.7332   -1.1200    2.1249 O   0  0  0  0  0  0  0  0  0  0  0  0
    0.5781   -2.8451    1.0030 O   0  0  0  0  0  0  0  0  0  0  0  0
   -0.7524   -1.2086   -0.5177 N   0  0  0  0  0  0  0  0  0  0  0  0
   -1.2245    0.1467   -0.6655 C   0  0  0  0  0  0  0  0  0  0  0  0
   -2.3757    0.1253   -1.6439 C   0  0  0  0  0  0  0  0  0  0  0  0
   -3.5811   -0.4496   -0.9208 C   0  0  0  0  0  0  0  0  0  0  0  0
   -4.0861    0.6281   -0.0198 C   0  0  0  0  0  0  0  0  0  0  0  0
   -4.4931    1.8352   -0.6547 N   0  0  0  0  0  0  0  0  0  0  0  0
   -4.1470    0.4763    1.2229 O   0  0  0  0  0  0  0  0  0  0  0  0
   -3.1371   -1.6583   -0.1578 C   0  0  0  0  0  0  0  0  0  0  0  0
   -1.7931   -2.1878   -0.6195 C   0  0  0  0  0  0  0  0  0  0  0  0
    1.4740    0.9633    1.3473 C   0  0  0  0  0  0  0  0  0  0  0  0
    2.5612    1.8103    1.3090 C   0  0  0  0  0  0  0  0  0  0  0  0
    6.4833    0.8569    0.8177 H   0  0  0  0  0  0  0  0  0  0  0  0
    6.7975    2.5109    0.2169 H   0  0  0  0  0  0  0  0  0  0  0  0
    5.9200    1.2796   -0.8121 H   0  0  0  0  0  0  0  0  0  0  0  0
    4.7557   -0.3006   -0.0968 H   0  0  0  0  0  0  0  0  0  0  0  0
    2.7777   -1.8096   -0.0159 H   0  0  0  0  0  0  0  0  0  0  0  0
   -1.5755    0.5009    0.3323 H   0  0  0  0  0  0  0  0  0  0  0  0
   -0.4136    0.8220   -1.0139 H   0  0  0  0  0  0  0  0  0  0  0  0
   -2.6682    1.1641   -1.9429 H   0  0  0  0  0  0  0  0  0  0  0  0
   -2.0806   -0.4885   -2.5064 H   0  0  0  0  0  0  0  0  0  0  0  0
   -4.4074   -0.6732   -1.6306 H   0  0  0  0  0  0  0  0  0  0  0  0
   -4.4782    2.7646   -0.1599 H   0  0  0  0  0  0  0  0  0  0  0  0
   -4.8256    1.8523   -1.6426 H   0  0  0  0  0  0  0  0  0  0  0  0
   -3.8794   -2.4785   -0.3715 H   0  0  0  0  0  0  0  0  0  0  0  0
   -3.0868   -1.5074    0.9333 H   0  0  0  0  0  0  0  0  0  0  0  0
   -1.8773   -2.6428   -1.6310 H   0  0  0  0  0  0  0  0  0  0  0  0
   -1.5614   -3.0514    0.0679 H   0  0  0  0  0  0  0  0  0  0  0  0
    0.5114    1.2901    1.7557 H   0  0  0  0  0  0  0  0  0  0  0  0
    2.4867    2.8160    1.6815 H   0  0  0  0  0  0  0  0  0  0  0  0
  1  2  1  0
  2  3  1  0
  3  4  2  0
  4  5  1  0
  5  6  2  0
  6  7  1  0
  7  8  2  0
  7  9  2  0
  7 10  1  0
 10 11  1  0
 11 12  1  0
 12 13  1  0
 13 14  1  0
 14 15  1  0
 14 16  2  0
 13 17  1  0
 17 18  1  0
  6 19  1  0
 19 20  2  0
 20  3  1  0
 18 10  1  0
  1 21  1  0
  1 22  1  0
  1 23  1  0
  4 24  1  0
  5 25  1  0
 11 26  1  0
 11 27  1  0
 12 28  1  0
 12 29  1  0
 13 30  1  0
 15 31  1  0
 15 32  1  0
 17 33  1  0
 17 34  1  0
 18 35  1  0
 18 36  1  0
 19 37  1  0
 20 38  1  0
M  END
