
     RDKit          3D

 41 42  0  0  0  0  0  0  0  0999 V2000
    3.9775   -1.4422   -0.0331 C   0  0  0  0  0  0  0  0  0  0  0  0
    3.4739   -0.1341    0.5449 C   0  0  0  0  0  0  0  0  0  0  0  0
    4.2170    1.0220   -0.0847 C   0  0  0  0  0  0  0  0  0  0  0  0
    3.6880   -0.1861    2.0423 C   0  0  0  0  0  0  0  0  0  0  0  0
    2.0116    0.0530    0.2201 C   0  0  0  0  0  0  0  0  0  0  0  0
    1.6396    1.0398   -0.4421 O   0  0  0  0  0  0  0  0  0  0  0  0
    1.0442   -0.8586    0.6442 N   0  0  0  0  0  0  0  0  0  0  0  0
   -0.3764   -0.8081    0.4453 C   0  0  0  0  0  0  0  0  0  0  0  0
   -1.3627   -2.3302    0.7645 S   0  0  0  0  0  0  0  0  0  0  0  0
   -2.9696   -1.4353    0.3022 C   0  0  0  0  0  0  0  0  0  0  0  0
   -4.1959   -2.2818    0.3908 C   0  0  0  0  0  0  0  0  0  0  0  0
   -4.3910   -2.9202   -0.9226 C   0  0  0  0  0  0  0  0  0  0  0  0
   -5.4977   -3.7831   -1.1035 N   0  0  0  0  0  0  0  0  0  0  0  0
   -3.6263   -2.7385   -1.8904 O   0  0  0  0  0  0  0  0  0  0  0  0
   -2.5655   -0.4268    0.0623 N   0  0  0  0  0  0  0  0  0  0  0  0
   -1.2999    0.0486    0.0858 C   0  0  0  0  0  0  0  0  0  0  0  0
   -1.1070    1.4575   -0.2532 C   0  0  0  0  0  0  0  0  0  0  0  0
   -1.4297    1.9833   -1.4808 C   0  0  0  0  0  0  0  0  0  0  0  0
   -1.3426    3.3296   -1.7494 C   0  0  0  0  0  0  0  0  0  0  0  0
   -0.9160    4.1521   -0.7386 C   0  0  0  0  0  0  0  0  0  0  0  0
   -0.5764    3.6893    0.5165 C   0  0  0  0  0  0  0  0  0  0  0  0
   -0.1618    4.5579    1.4709 F   0  0  0  0  0  0  0  0  0  0  0  0
   -0.6772    2.3206    0.7512 C   0  0  0  0  0  0  0  0  0  0  0  0
    3.3086   -1.7068   -0.8924 H   0  0  0  0  0  0  0  0  0  0  0  0
    3.7829   -2.2250    0.7422 H   0  0  0  0  0  0  0  0  0  0  0  0
    5.0432   -1.3916   -0.3265 H   0  0  0  0  0  0  0  0  0  0  0  0
    4.9591    1.4459    0.6305 H   0  0  0  0  0  0  0  0  0  0  0  0
    3.5197    1.8300   -0.4208 H   0  0  0  0  0  0  0  0  0  0  0  0
    4.7922    0.6881   -0.9721 H   0  0  0  0  0  0  0  0  0  0  0  0
    2.7342   -0.5291    2.5226 H   0  0  0  0  0  0  0  0  0  0  0  0
    3.9370    0.8215    2.4380 H   0  0  0  0  0  0  0  0  0  0  0  0
    4.4694   -0.9315    2.2807 H   0  0  0  0  0  0  0  0  0  0  0  0
    1.4502   -1.6920    1.1930 H   0  0  0  0  0  0  0  0  0  0  0  0
   -5.0177   -1.6131    0.6882 H   0  0  0  0  0  0  0  0  0  0  0  0
   -4.1133   -3.0531    1.1890 H   0  0  0  0  0  0  0  0  0  0  0  0
   -5.3669   -4.8007   -1.2161 H   0  0  0  0  0  0  0  0  0  0  0  0
   -6.4493   -3.3711   -1.1209 H   0  0  0  0  0  0  0  0  0  0  0  0
   -1.7610    1.2986   -2.2470 H   0  0  0  0  0  0  0  0  0  0  0  0
   -1.5963    3.7344   -2.7107 H   0  0  0  0  0  0  0  0  0  0  0  0
   -0.8408    5.2081   -0.9278 H   0  0  0  0  0  0  0  0  0  0  0  0
   -0.4075    1.9784    1.7380 H   0  0  0  0  0  0  0  0  0  0  0  0
  1  2  1  0
  2  3  1  0
  2  4  1  0
  2  5  1  0
  5  6  2  0
  5  7  1  0
  7  8  1  0
  8  9  1  0
  9 10  1  0
 10 11  1  0
 11 12  1  0
 12 13  1  0
 12 14  2  0
 10 15  2  0
 15 16  1  0
 16 17  1  0
 17 18  2  0
 18 19  1  0
 19 20  2  0
 20 21  1  0
 21 22  1  0
 21 23  2  0
 16  8  2  0
 23 17  1  0
  1 24  1  0
  1 25  1  0
  1 26  1  0
  3 27  1  0
  3 28  1  0
  3 29  1  0
  4 30  1  0
  4 31  1  0
  4 32  1  0
  7 33  1  0
 11 34  1  0
 11 35  1  0
 13 36  1  0
 13 37  1  0
 18 38  1  0
 19 39  1  0
 20 40  1  0
 23 41  1  0
M  END
