
     RDKit          3D

 33 35  0  0  0  0  0  0  0  0999 V2000
    1.8075    1.0956   -1.6681 O   0  0  0  0  0  0  0  0  0  0  0  0
    1.2434    0.5612   -0.6880 C   0  0  0  0  0  0  0  0  0  0  0  0
    1.9978   -0.0672    0.2944 N   0  0  0  0  0  0  0  0  0  0  0  0
    3.4120   -0.2012    0.3537 C   0  0  0  0  0  0  0  0  0  0  0  0
    3.9904   -0.8777    1.4377 C   0  0  0  0  0  0  0  0  0  0  0  0
    5.3464   -1.0436    1.5583 C   0  0  0  0  0  0  0  0  0  0  0  0
    6.1961   -0.5309    0.5826 C   0  0  0  0  0  0  0  0  0  0  0  0
    5.6683    0.1330   -0.4861 C   0  0  0  0  0  0  0  0  0  0  0  0
    6.6483    0.8150   -1.7659 Cl  0  0  0  0  0  0  0  0  0  0  0  0
    4.2968    0.2790   -0.5708 C   0  0  0  0  0  0  0  0  0  0  0  0
   -0.2187    0.5793   -0.5434 C   0  0  0  0  0  0  0  0  0  0  0  0
   -1.3156    1.3463   -1.7216 S   0  0  0  0  0  0  0  0  0  0  0  0
   -2.7740    0.9867   -0.9326 C   0  0  0  0  0  0  0  0  0  0  0  0
   -2.3919    0.3027    0.1894 C   0  0  0  0  0  0  0  0  0  0  0  0
   -1.0688    0.1063    0.3661 C   0  0  0  0  0  0  0  0  0  0  0  0
   -3.5703   -0.1217    1.0551 C   0  0  0  0  0  0  0  0  0  0  0  0
   -4.6075   -0.8114    0.2085 C   0  0  0  0  0  0  0  0  0  0  0  0
   -4.8910   -0.1334   -1.0854 C   0  0  0  0  0  0  0  0  0  0  0  0
   -4.2548    1.2392   -1.1865 C   0  0  0  0  0  0  0  0  0  0  0  0
    1.4220   -0.4965    1.0966 H   0  0  0  0  0  0  0  0  0  0  0  0
    3.3336   -1.2843    2.2095 H   0  0  0  0  0  0  0  0  0  0  0  0
    5.7882   -1.5658    2.3956 H   0  0  0  0  0  0  0  0  0  0  0  0
    7.2752   -0.6417    0.6424 H   0  0  0  0  0  0  0  0  0  0  0  0
    3.9382    0.8055   -1.4253 H   0  0  0  0  0  0  0  0  0  0  0  0
   -0.6702   -0.4447    1.2593 H   0  0  0  0  0  0  0  0  0  0  0  0
   -3.2472   -0.8516    1.8251 H   0  0  0  0  0  0  0  0  0  0  0  0
   -3.9549    0.8014    1.5363 H   0  0  0  0  0  0  0  0  0  0  0  0
   -4.3626   -1.8751    0.0768 H   0  0  0  0  0  0  0  0  0  0  0  0
   -5.5602   -0.7964    0.8130 H   0  0  0  0  0  0  0  0  0  0  0  0
   -5.9866   -0.0606   -1.2930 H   0  0  0  0  0  0  0  0  0  0  0  0
   -4.4531   -0.7666   -1.9016 H   0  0  0  0  0  0  0  0  0  0  0  0
   -4.6731    1.9113   -0.4368 H   0  0  0  0  0  0  0  0  0  0  0  0
   -4.3637    1.6079   -2.2248 H   0  0  0  0  0  0  0  0  0  0  0  0
  1  2  2  0
  2  3  1  0
  3  4  1  0
  4  5  2  0
  5  6  1  0
  6  7  2  0
  7  8  1  0
  8  9  1  0
  8 10  2  0
  2 11  1  0
 11 12  1  0
 12 13  1  0
 13 14  2  0
 14 15  1  0
 14 16  1  0
 16 17  1  0
 17 18  1  0
 18 19  1  0
 10  4  1  0
 15 11  2  0
 19 13  1  0
  3 20  1  0
  5 21  1  0
  6 22  1  0
  7 23  1  0
 10 24  1  0
 15 25  1  0
 16 26  1  0
 16 27  1  0
 17 28  1  0
 17 29  1  0
 18 30  1  0
 18 31  1  0
 19 32  1  0
 19 33  1  0
M  END
